/batch
/config,noeldb,1     ! force off writing results to database
*get,_wallstrt,active,,time,wall
! ANSYS input file written by Workbench version 19.2 RELEASE
! File used for geometry attach: C:\Users\hp\AppData\Local\Temp\WB_PRASAD_hp_1628_2\unsaved_project_files\dp0\global\MECH\SYS-1\AssembledModel\SYS-1.pmdb
/title,unsaved_project--Static Structural (B4)
*DIM,_wb_ProjectScratch_dir,string,248
_wb_ProjectScratch_dir(1) = 'C:\Users\hp\AppData\Local\Temp\WB_PRASAD_hp_1628_2\unsaved_project_files\dp0\SYS-1\MECH\'
*DIM,_wb_SolverFiles_dir,string,248
_wb_SolverFiles_dir(1) = 'C:\Users\hp\AppData\Local\Temp\WB_PRASAD_hp_1628_2\unsaved_project_files\dp0\SYS-1\MECH\'
*DIM,_wb_userfiles_dir,string,248
_wb_userfiles_dir(1) = 'C:\Users\hp\AppData\Local\Temp\WB_PRASAD_hp_1628_2\unsaved_project_files\user_files\'
/com,--- Data in consistent NMM units. See Solving Units in the help system for more information.
/units,MPA
/nopr
/wb,file,start              !  signify a WB generated input file
/prep7
! Turn off shape checking because checks already performed inside WB mesher.
! See help system for more information.
SHPP,OFF,,NOWARN
/nolist
etcon,set             ! allow ANSYS to choose best KEYOP's for 180x elements
/com,*********** Nodes for the whole assembly ***********
nblock,3,,827
(1i9,3e20.9e3)
       26     0.000000000E+00     9.500000000E+05     0.000000000E+00
        8     0.000000000E+00     1.000000000E+06     0.000000000E+00
       28     5.064916992E+04     9.987164917E+05     0.000000000E+00
       58     0.000000000E+00    -1.000000000E+06     0.000000000E+00
       90     0.000000000E+00    -9.500000000E+05     0.000000000E+00
       59     5.064916992E+04    -9.987164917E+05     0.000000000E+00
        2     0.000000000E+00     5.000000000E+04     0.000000000E+00
        9     0.000000000E+00     1.000000000E+05     0.000000000E+00
      115     3.422316742E+04     8.466674805E+04     0.000000000E+00
        7     5.000000000E+04     5.000000000E+04     0.000000000E+00
      107     0.000000000E+00    -1.000000000E+05     0.000000000E+00
       89     0.000000000E+00    -5.000000000E+04     0.000000000E+00
      118     3.420236206E+04    -8.467530823E+04     0.000000000E+00
      109     5.000000000E+04    -5.000000000E+04     0.000000000E+00
      119     4.351849747E+04     1.281849365E+05     0.000000000E+00
       10     0.000000000E+00     1.500000000E+05     0.000000000E+00
      120     7.754690552E+04     9.548742676E+04     0.000000000E+00
        6     1.000000000E+05     5.000000000E+04     0.000000000E+00
      121     4.345034790E+04    -1.282206573E+05     0.000000000E+00
      106     0.000000000E+00    -1.500000000E+05     0.000000000E+00
! ... 733 like lines cut
/wb,elem,start            !  set before creation of elements
/com,*********** Elements for Body 1 "Surface Body 1(External Model)" ***********
et,1,181
keyo,1,3,2
eblock,19,solid,,1388
(19i9)
        1        1        1        1        0        0        0        0        4        0        1       26        8       28       28
        1        1        1        1        0        0        0        0        4        0        2       58       90       59       59
        1        1        1        1        0        0        0        0        4        0        3        2        9      115      115
        1        1        1        1        0        0        0        0        4        0        4        7        2      115      115
        1        1        1        1        0        0        0        0        4        0        5      107       89      118      118
        1        1        1        1        0        0        0        0        4        0        6       89      109      118      118
        1        1        1        1        0        0        0        0        4        0        7      115        9      119      119
        1        1        1        1        0        0        0        0        4        0        8        9       10      119      119
        1        1        1        1        0        0        0        0        4        0        9        7      115      120      120
        1        1        1        1        0        0        0        0        4        0       10        6        7      120      120
        1        1        1        1        0        0        0        0        4        0       11      107      118      121      121
        1        1        1        1        0        0        0        0        4        0       12      106      107      121      121
        1        1        1        1        0        0        0        0        4        0       13      118      109      122      122
        1        1        1        1        0        0        0        0        4        0       14      109      110      122      122
        1        1        1        1        0        0        0        0        4        0       15        6      120      123      123
        1        1        1        1        0        0        0        0        4        0       16        5        6      123      123
        1        1        1        1        0        0        0        0        4        0       17      122      110      124      124
        1        1        1        1        0        0        0        0        4        0       18      110      111      124      124
        1        1        1        1        0        0        0        0        4        0       19      119       10      125      125
        1        1        1        1        0        0        0        0        4        0       20       10       11      125      125
! ... 1369 like lines cut
!Material Id = {ADE1F2AA-5BD2-4156-844F-C89F2B715CFF}
/wb,elem,end               !  done creating elements
/com,*********** Send User Defined Coordinate System(s) ***********
csys,0
toffst,273.15,  ! Temperature offset from absolute zero
/com,*********** Set Reference Temperature ***********
tref,22.
/wb,mat,start              !  starting to send materials
/com,*********** Send Materials ***********
Temperature = 'TEMP' ! Temperature
MP,DENS,1,7.85e-09,	! tonne mm^-3
MP,ALPX,1,1.2e-05,	! C^-1
MP,C,1,434000000,	! mm^2 s^-2 C^-1
MP,KXX,1,60.5,	! tonne mm s^-3 C^-1
MP,RSVX,1,0.00017,	! ohm mm
MP,EX,1,200000,	! tonne s^-2 mm^-1
MP,NUXY,1,0.3,
MP,MURX,1,10000,

/wb,mat,end                !  done sending materials
/com,*********** Send Sheet Properties ***********
sectype,1,shell
secdata,0.1
secoff,mid

!************************* Model Summary ********************
!Surface Body 1(External Model),	Structural Steel,	matid,	1
!************************* End Model Summary ********************
! get the diagonal of the bounding box. Needed later for other things
*get,_xmin,node,,mnloc,x
*get,_ymin,node,,mnloc,y
*get,_zmin,node,,mnloc,z
*get,_xmax,node,,mxloc,x
*get,_ymax,node,,mxloc,y
*get,_zmax,node,,mxloc,z
_ASMDIAG=(_xmax-_xmin)*(_xmax-_xmin)+(_ymax-_ymin)*(_ymax-_ymin)+(_zmax-_zmin)*(_zmax-_zmin)
_ASMDIAG=SQRT(_ASMDIAG)
/wb,contact,start          !  starting to send contact
/wb,contact,end            !  done creating contacts
/golist
/wb,load,start             !  starting to send loads
/gst,on,on
fini
*get,_numnode,node,0,count
*get,_numelem,elem,0,count
*get, _MAXELEMNUM, elem, 0, NUM, MAX
*get, _MAXNODENUM, node, 0, NUM, MAX
*get, _MAXELEMTYPE, etyp, 0, NUM, MAX
*get, _MAXREALCONST, real, 0, NUM, MAX
/go
/wb,load,end               !  done creating loads
/com,--- Number of total nodes = %_numnode%
/com,--- Number of contact elements = 0
/com,--- Number of spring elements = 0
/com,--- Number of bearing elements = 0
/com,--- Number of solid elements = 1388
/com,--- Number of condensed parts = 0
/com,--- Number of total elements = %_numelem%
*get,_wallbsol,active,,time,wall
/com,****************************************************************************
/com,*************************    SOLUTION       ********************************
/com,****************************************************************************
/solu
antype,0                   ! static analysis
eqsl,sparse,,,,,1
cntr,print,1               ! print out contact info and also make no initial contact an error
dmpoption,emat,no             ! Don't combine emat file for DANSYS
dmpoption,esav,no             ! Don't combine esav file for DANSYS
nldiag,cont,iter           ! print out contact info each equilibrium iteration
rescontrol,,none                 ! Do not keep any restart files
/com,****************************************************
/com,******************* SOLVE FOR LS 1 OF 1 ****************
/nopr
/gopr
nsub,1,1,1
time,1.
outres,erase
outres,all,none
outres,nsol,all,
outres,rsol,all
outres,strs,all,
outres,epel,all,
outres,eppl,all,
stabilize,off                   ! Stabilization turned OFF by user
! *********** WB SOLVE COMMAND ***********
! check interactive state
*get,ANSINTER_,active,,int
*if,ANSINTER_,ne,0,then
/eof
*endif
solve
/com *************** Write FE CONNECTORS ********* 
CEWRITE,file,ce,,INTE
/com,****************************************************
/com,*************** FINISHED SOLVE FOR LS 1 *************
*get,_wallasol,active,,time,wall
/nopr
*get,_numnode,node,0,count
*get,_numelem,elem,0,count
*get, _MAXELEMNUM, elem, 0, NUM, MAX
*get, _MAXNODENUM, node, 0, NUM, MAX,,,INTERNAL
*get, _MAXELEMTYPE, etyp, 0, NUM, MAX
*get, _MAXREALCONST, real, 0, NUM, MAX
/gopr
/post1
xmlo,ENCODING,ISO-8859-1
xmlo,parm
/xml,parm,xml
fini
/gopr
*get,_walldone,active,,time,wall
_preptime=(_wallbsol-_wallstrt)*3600
_solvtime=(_wallasol-_wallbsol)*3600
_posttime=(_walldone-_wallasol)*3600
_totaltim=(_walldone-_wallstrt)*3600
/wb,file,end               ! done with WB generated input
